*heading
 Verification test of heat energy balance of AM SLM process
 DC3D8 + Goldak moving heat source
**
*preprint, model=no
**--------------------------------------------------------
*include, input=ABQ_am_special_purpose_types.inp
**--------------------------------------------------------
*part, name=cube
*node, nset=nall
  1,           1.,           1.,           1.
  2,           1.,  0.666666687,           1.
  3,           1.,  0.333333343,           1.
  4,           1.,           0.,           1.
  5,           1.,           1.,  0.666666687
  6,           1.,  0.666666687,  0.666666687
  7,           1.,  0.333333343,  0.666666687
  8,           1.,           0.,  0.666666687
  9,           1.,           1.,  0.333333343
 10,           1.,  0.666666687,  0.333333343
 11,           1.,  0.333333343,  0.333333343
 12,           1.,           0.,  0.333333343
 13,           1.,           1.,           0.
 14,           1.,  0.666666687,           0.
 15,           1.,  0.333333343,           0.
 16,           1.,           0.,           0.
 17,  0.666666687,           1.,           1.
 18,  0.666666687,  0.666666687,           1.
 19,  0.666666687,  0.333333343,           1.
 20,  0.666666687,           0.,           1.
** ... 44 like lines cut
*element, type=DC3D8, elset=eall
  1, 17, 18, 22, 21,  1,  2,  6,  5
  2, 18, 19, 23, 22,  2,  3,  7,  6
  3, 19, 20, 24, 23,  3,  4,  8,  7
  4, 21, 22, 26, 25,  5,  6, 10,  9
  5, 22, 23, 27, 26,  6,  7, 11, 10
  6, 23, 24, 28, 27,  7,  8, 12, 11
  7, 25, 26, 30, 29,  9, 10, 14, 13
  8, 26, 27, 31, 30, 10, 11, 15, 14
  9, 27, 28, 32, 31, 11, 12, 16, 15
 10, 33, 34, 38, 37, 17, 18, 22, 21
 11, 34, 35, 39, 38, 18, 19, 23, 22
 12, 35, 36, 40, 39, 19, 20, 24, 23
 13, 37, 38, 42, 41, 21, 22, 26, 25
 14, 38, 39, 43, 42, 22, 23, 27, 26
 15, 39, 40, 44, 43, 23, 24, 28, 27
 16, 41, 42, 46, 45, 25, 26, 30, 29
 17, 42, 43, 47, 46, 26, 27, 31, 30
 18, 43, 44, 48, 47, 27, 28, 32, 31
 19, 49, 50, 54, 53, 33, 34, 38, 37
 20, 50, 51, 55, 54, 34, 35, 39, 38
** ... 7 like lines cut
*nset, nset=noutput
 nall
*end part
**
*assembly, name=assembly-1
**
*instance, name=partial_act, part=cube
*solid section, elset=eall, material=elmat
*element progressive activation, elset=eall, name=partial
*end instance
**
*instance, name=full_act, part=cube
 2., 0., 0.
*solid section, elset=eall, material=elmat
*element progressive activation, elset=eall, name=full
*end instance
**
*instance, name=no_act, part=cube
 4., 0., 0.
*solid section, elset=eall, material=elmat
*end instance
**
*nset, nset=nall
 partial_act.nall, full_act.nall, no_act.nall
*elset, elset=eall
 partial_act.eall, full_act.eall, no_act.eall
*nset, nset=noutput
 partial_act.noutput, full_act.noutput, no_act.noutput
**
*end assembly
**--------------------------------------------------------
*material,name=elmat
*conductivity
 5000.
*specific heat
 500.
*density
 8000.
**--------------------------------------------------------
*event series, name="SLM.PowderBed.RollerMotionSequence.1", type="ABQ_AM_MaterialDeposition", time=total, input=es_heatbalance_roller.inp
*event series, name="SLM.PowderBed.RollerMotionSequence.2", type="ABQ_AM_MaterialDeposition", time=total, transform
 0., 2., 0., 0.
 
*include, input=es_heatbalance_roller.inp
**
*Event Series, Name="SLM.PowderBed.LaserPath.1", type="ABQ_AM_PowerMagnitude", time=total, input=es_heatbalance_laser.inp
*Event Series, Name="SLM.PowderBed.LaserPath.2", type="ABQ_AM_PowerMagnitude", time=total, transform
 0., 2., 0., 0.
 
*include, input = es_heatbalance_laser.inp
*Event Series, Name="SLM.PowderBed.LaserPath.3", type="ABQ_AM_PowerMagnitude", time=total, transform
 0., 4., 0., 0.
 
*include, input = es_heatbalance_laser.inp
**--------------------------------------------------------
** laser
**
*parameter
 laserSpotRadius  = 2.5e-2
 penetrationDepth = 2.5e-2
 GoldakParamA = laserSpotRadius
 GoldakParamB = penetrationDepth
 GoldakParamCF = laserSpotRadius
 GoldakParamCR = laserSpotRadius
 GoldakParamFF = 2*(GoldakParamCF)/(GoldakParamCR+GoldakParamCF)
 GoldakParamFR = 2*(GoldakParamCR)/(GoldakParamCR+GoldakParamCF)
 BoxSizeFactor = 1.25
**
*table collection, name="ABQ_AM.PowderBed.EnergyInput.1"
*parameter table,  type="ABQ_AM_MovingHeatSource"
 "SLM.PowderBed.LaserPath.1","Goldak"
*parameter table,  type="ABQ_AM_MovingHeatSource_Advanced"
 "False", "False","Relative", 0.0, 0.0, -1.0, 1.0
*parameter table,  type="ABQ_AM_MovingHeatSource_Goldak"
 3, 3, 3,
 <GoldakParamA>,  <GoldakParamB>, <GoldakParamCF>, <GoldakParamCR>,
 <GoldakParamFF>, <GoldakParamFR>,
 <BoxSizeFactor>
*property table,   type="ABQ_AM_AbsorptionCoeff"
 1.0
**
*table collection, name="ABQ_AM.PowderBed.EnergyInput.2"
*parameter table,  type="ABQ_AM_MovingHeatSource"
 "SLM.PowderBed.LaserPath.2","Goldak"
*parameter table,  type="ABQ_AM_MovingHeatSource_Advanced"
 "False", "False","Relative", 0.0, 0.0, -1.0, 1.0
*parameter table,  type="ABQ_AM_MovingHeatSource_Goldak"
 3, 3, 3,
 <GoldakParamA>,  <GoldakParamB>, <GoldakParamCF>, <GoldakParamCR>,
 <GoldakParamFF>, <GoldakParamFR>,
 <BoxSizeFactor>
*property table,   type="ABQ_AM_AbsorptionCoeff"
 1.0
**
*table collection, name="ABQ_AM.PowderBed.EnergyInput.3"
*parameter table,  type="ABQ_AM_MovingHeatSource"
 "SLM.PowderBed.LaserPath.3","Goldak"
*parameter table,  type="ABQ_AM_MovingHeatSource_Advanced"
 "False", "False","Relative", 0.0, 0.0, -1.0, 1.0
*parameter table,  type="ABQ_AM_MovingHeatSource_Goldak"
 3, 3, 3,
 <GoldakParamA>,  <GoldakParamB>, <GoldakParamCF>, <GoldakParamCR>,
 <GoldakParamFF>, <GoldakParamFR>,
 <BoxSizeFactor>
*property table,   type="ABQ_AM_AbsorptionCoeff"
 1.0
**--------------------------------------------------------
** material deposition (roller)
**
*table collection, name="ABQ_AM.PowderBed.MaterialInput.Partial"     
*parameter table,  type= "ABQ_AM_MaterialDeposition"
 "SLM.PowderBed.RollerMotionSequence.1","Roller"
*parameter table,  type= "ABQ_AM_MaterialDeposition_Advanced"
 "Partial",0.199,1.,0.0,,,
**
*table collection, name="ABQ_AM.PowderBed.MaterialInput.Full"     
*parameter table,  type= "ABQ_AM_MaterialDeposition"
 "SLM.PowderBed.RollerMotionSequence.2","Roller"
*parameter table,  type= "ABQ_AM_MaterialDeposition_Advanced"
 "Full",0.0,0.0,0.0,,,
**---------------------------------------------------------
*initial conditions,type=temperature
 nall,0
**---------------------------------------------------------
*step,inc=1000
*heat transfer
 10.0,1500,1.0,20.00
**
*activate element,activation=partial
 "ABQ_AM.PowderBed.MaterialInput.Partial"
*activate element,activation=full
 "ABQ_AM.PowderBed.MaterialInput.Full"
**
*dflux
 partial_act.eall,MBFNU,,"ABQ_AM.PowderBed.EnergyInput.1"
 full_act.eall,   MBFNU,,"ABQ_AM.PowderBed.EnergyInput.2"
 no_act.eall,     MBFNU,,"ABQ_AM.PowderBed.EnergyInput.3"
***
*output,field,freq=1
*element output
 EACTIVE
*node output
 NT
**
*output,history,freq=1
*node output,nset=noutput
 NT11
*energy output
 ALLHUMDFLUX, ALLUSER
*end step
