*HEADING
 Thermal analysis of the NIST AM benchmark problem 
 (AMB2018-01, bridge structure)
**------------------------------------------------
** PARTS
**
*Part, name=BRIDGE
** *Node and *Nset
*Include, input=node_bridge_part.inp
** *Element and *Elset
*Element, type=DC3D8
*Include, input=elem_bridge_part.inp
*End Part
**  
*Part, name=SUBSTRATE
** *Node and *Nset
*Include, input=node_bridge_substrate.inp
** *Element and *Elset
*Element, type=DC3D8
*Include, input=elem_bridge_substrate.inp
*End Part
**------------------------------------------------
** ASSEMBLY
**
*Assembly, name=Assembly
**  
*Instance, name=BRIDGE-1, part=BRIDGE
** Section: IN625
*ORIENTATION, name=Global
 1,0,0,0,1,0
 1,0
*Solid Section, elset=ALL, material=IN625, orientation=Global
*End Instance
**  
*Instance, name=SUBSTRATE-1, part=SUBSTRATE
        -2.5,          -5.,        -12.7
** Section: IN625
*ORIENTATION, name=Global
 1,0,0,0,1,0
 1,0
*Solid Section, elset=ALL, material=IN625, orientation=Global
*End Instance
**  
*Nset, nset=ALL
 BRIDGE-1.ALL, SUBSTRATE-1.ALL
*Elset, elset=ALL
 BRIDGE-1.ALL, SUBSTRATE-1.ALL
*Surface, type=NODE, name=SUBSTRATE-1_TOP_SURF_CNS_, internal
 SUBSTRATE-1.TOP_SURF, 1.
*Surface, type=NODE, name=BRIDGE-1_BOTTOM_SURF_CNS_, internal
 BRIDGE-1.BOTTOM_SURF, 1.
** Constraint: PART2SUB
*Tie, name=PART2SUB, adjust=yes
 BRIDGE-1_BOTTOM_SURF_CNS_, SUBSTRATE-1_TOP_SURF_CNS_
*ELEMENT PROGRESSIVE ACTIVATION,NAME="Material Input1",ELSET=BRIDGE-1.ALL,FOLLOW=YES
*End Assembly
**------------------------------------------------
*PHYSICAL CONSTANTS, ABSOLUTE ZERO=-273, STEFAN BOLTZMANN=5.670373e-11
**------------------------------------------------
*MATERIAL, NAME=IN625
*Conductivity
  9.8, 21.
 10.1, 38.
 10.8, 93.
 12.5,204.
 14.1,316.
 15.7,427.
 17.5,538.
  19.,649.
 20.8,760.
 22.8,871.
 25.2,982.
*Density
 8.44e-09,
*Elastic
 207500., 0.278,   21.
 204100.,  0.28,   93.
 197900., 0.286,  204.
 191700.,  0.29,  316.
 185500., 0.295,  427.
 178600., 0.305,  538.
 170300., 0.321,  649.
 160600.,  0.34,  760.
 147500., 0.336,  871.
*Expansion, ZERO=25.
 1.28e-05, 93.
 1.31e-05, 204.
 1.33e-05, 316.
 1.37e-05, 427.
 1.4e-05, 538.
 1.48e-05, 649.
 1.53e-05,760.
 1.58e-05, 871.
 1.62e-05, 927.
*Specific Heat
  4.1e+08,  21.
 4.27e+08,  93.
 4.56e+08, 204.
 4.81e+08, 316.
 5.11e+08, 427.
 5.36e+08, 538.
 5.65e+08, 649.
  5.9e+08, 760.
  6.2e+08, 871.
 6.45e+08, 982.
  6.7e+08,1093.
*Latent Heat,SMOOTH
 272E9, 1290., 1350.
*PLASTIC
 725, 0.
 990, 0.35
*POTENTIAL
 1,1,0.8483,1,1,1
**------------------------------------------------
*INCLUDE, INPUT=ABQ_am_special_purpose_types.inp
**------------------------------------------------
*EVENT SERIES,  NAME="DELMIA_Path_Data1", TIME = TOTAL, TYPE="ABQ_AM_PowerMagnitude", input=es_bridge_laser.inp
*EVENT SERIES,  NAME="DELMIA_Roller_Data1", TIME = TOTAL, TYPE="ABQ_AM_MaterialDeposition", input=es_bridge_roller.inp
**------------------------------------------------
*TABLE COLLECTION, NAME="ABQ_AM.Material Input.1"
*PARAMETER TABLE,  TYPE="ABQ_AM_MaterialDeposition"
 "DELMIA_Roller_Data1",
 "Roller",
*PARAMETER TABLE,  TYPE="ABQ_AM_MaterialDeposition_Advanced"
 "Full",
 0.,
 0.,
 0.,,,
**------------------------------------------------
*TABLE COLLECTION, NAME="ABQ_AM.Moving Heat Flux.1"
*PARAMETER TABLE,  TYPE="ABQ_AM_MovingHeatSource"
 "DELMIA_Path_Data1",
 "Concentrated",
*PARAMETER TABLE,  TYPE="ABQ_AM_MovingHeatSource_Advanced"
 "False",
 "False",
 "Relative",
 0.,
 0.,
 -1.,
 1.,
*PROPERTY TABLE,  TYPE="ABQ_AM_AbsorptionCoeff"
 0.45
**------------------------------------------------
*INITIAL CONDITIONS, TYPE=TEMPERATURE
 BRIDGE-1.ALL,40
*INITIAL CONDITIONS, TYPE=TEMPERATURE
 SUBSTRATE-1.ALL,80
*TIME POINTS, NAME=BuildEachLayer
 52.78, 104.78, 156.78, 208.78, 260.78, 312.78, 364.78
 416.78, 468.78, 520.78, 572.78, 624.78, 676.78, 728.78, 780.78
 832.78, 884.78, 936.78, 988.78, 1040.78, 1092.78, 1144.78, 1196.78
 1248.78, 1300.78, 1352.78, 1404.78, 1456.78, 1508.78, 1560.78, 1612.78
 1664.78, 1716.78, 1768.78, 1820.78, 1872.78, 1924.78, 1976.78, 2028.78
 2080.78, 2132.78, 2184.78, 2236.78, 2288.78, 2340.78, 2392.78, 2444.78
 2496.78, 2548.78, 2600.78, 2652.78, 2704.78, 2756.78, 2808.78, 2860.78
 2912.78, 2964.78, 3016.78, 3068.78, 3120.78, 3172.78, 3224.78, 3276.78
 3328.78, 3380.78, 3432.78, 3484.78, 3536.78, 3588.78, 3640.78, 3692.78
 3744.78, 3796.78, 3848.78, 3900.78, 3952.78, 4004.78, 4056.78, 4108.78
 4160.78, 4212.78, 4264.78, 4316.78, 4368.78, 4420.78, 4472.78, 4524.78
 4576.78, 4628.78, 4680.78, 4732.78, 4784.78, 4836.78, 4888.78, 4940.78
 4992.78, 5044.78, 5096.78, 5148.78, 5200.78, 5252.78, 5304.78, 5356.78
 5408.78, 5460.78, 5512.78, 5564.78, 5616.78, 5668.78, 5720.78, 5772.78
 5824.78, 5876.78, 5928.78, 5980.78, 6032.78, 6084.78, 6136.78, 6188.78
 6240.78, 6292.78, 6344.78, 6396.78, 6448.78, 6500.78, 6552.78, 6604.78
 6656.78, 6708.78, 6760.78, 6812.78, 6864.78, 6916.78, 6968.78, 7020.78
 7072.78, 7124.78, 7176.78, 7228.78, 7280.78, 7332.78, 7384.78, 7436.78
 7488.78, 7540.78, 7592.78, 7644.78, 7696.78, 7748.78, 7800.78, 7852.78
 7904.78, 7956.78, 8008.78, 8060.78, 8112.78, 8164.78, 8216.78, 8268.78
** ... 59 like lines cut
**------------------------------------------------
*STEP, NAME=PRINT, AMPLITUDE=STEP, EXTRAPOLATION=NO, INC=10000, UNSYMM=YES
*HEAT TRANSFER, DELTMX=5000., MXDEM=0.1
 500, 33053.36, 1e-05, 1000
*DFLUX, OP=NEW
 BRIDGE-1.ALL, MBFNU, , "ABQ_AM.Moving Heat Flux.1"
*BOUNDARY, OP=NEW
 SUBSTRATE-1.BOTTOM_SURF, 11, 11, 80
*FILM, OP=NEW
 ALL, FFS, 40, 0.018
*RADIATE, OP=NEW
 ALL, RFS, 40, 0.45
*ACTIVATE ELEMENTS, ACTIVATION="Material Input1"
 "ABQ_AM.Material Input.1"
**
*OUTPUT, FIELD, TIME POINTS=BuildEachLayer, TIME MARKS=YES 
*NODE OUTPUT
 NT
*OUTPUT, HISTORY, FREQUENCY=0
*END STEP
**------------------------------------------------