**
** ABAQUS Input Deck Generated by HyperMesh Version  : 2024.1.0.30
** Generated using HyperMesh-Abaqus Template Version : 2024.1.0.30-123966
** Generated on 06-21-2025 at 01:13:18
**
**   Template:  ABAQUS/STANDARD 3D
**
*HEADING
 Thermal analysis of printing a 42-layer thinwall (LDED, Inconel625) 
 Inter-layer dwell time 0s
*PARAMETER
beadWidth = 3.35
*PARAMETER
beadHeight = 0.9071
*PARAMETER
laserSpotRadius = 2.0
*PARAMETER
penetrationDepth = 1.1
*PARAMETER
GoldakParamA = laserSpotRadius
*PARAMETER
GoldakParamB = penetrationDepth
*PARAMETER
GoldakParamCF = laserSpotRadius
*PARAMETER
GoldakParamCR = laserSpotRadius
*PARAMETER
GoldakParamFF = 2*(GoldakParamCF)/(GoldakParamCR+GoldakParamCF)
*PARAMETER
GoldakParamFR = 2*(GoldakParamCR)/(GoldakParamCR+GoldakParamCF)
**HM_UNSUPPORTED_CARDS_START
*EVENT SERIES TYPE, Fields=1, NAME="ABQ_AM_MaterialDeposition"
 "On/Off state (on=1, off=0) "
*PARAMETER TABLE TYPE, NAME="ABQ_AM_MaterialDeposition", PARAMETERS=2
 STRING, , "Event series"      , ,              ,
 STRING, , "Deposition process", , "Roller|Bead",
*PARAMETER TABLE TYPE, NAME="ABQ_AM_MaterialDeposition_Bead", PARAMETERS = 5
 STRING, , "Stack direction"    , , "X|Y|Z"      ,
 FLOAT , , "Bead height"        , ,              ,
 FLOAT , , "Bead width"         , ,              ,
 FLOAT , , "Activation offset"  , ,              ,
 STRING, , "Deposition position", , "Below|Above|Middle",
*PARAMETER TABLE TYPE, NAME="ABQ_AM_MaterialDeposition_Advanced",PARAMETERS = 6
 STRING, "Partial", "Activation type"              , , "Full|Partial",
 FLOAT , 0.0      , "Min volume fraction threshold for partial activation", ,               ,
 FLOAT , 1.0      , "Max volume fraction threshold for partial activation", ,               ,
 FLOAT , 0.0      , "Max volume fraction threshold for full activation", ,               ,
 STRING,"Yes"     , "Update orientation for bead type deposition", , ,
 INTEGER, 0       , "Element subdivision order (set to zero for automatic subdivision order)", ,,
*PARAMETER TABLE TYPE,  NAME="ABQ_AM_MaterialDeposition_VariableBeadSize", PARAMETERS = 2
 INTEGER, 5,"ES field ID for height",L,"zero indicates constant bead height"
 INTEGER, 6,"ES field ID for width",L,"zero indicates constant bead width"
*EVENT SERIES TYPE, Fields=1, NAME="ABQ_AM_PowerMagnitude"
 "Power magnitude (unit of JT^-1)"
*PARAMETER TABLE TYPE, NAME="ABQ_AM_MovingHeatSource", PARAMETERS = 2
 STRING, , "Event series"       , ,                              ,
 STRING, , "Energy distribution", , "Concentrated|Uniform|Goldak",
*PARAMETER TABLE TYPE, NAME="ABQ_AM_MovingHeatSource_Uniform", PARAMETERS=9
 INTEGER, , "SubDivX"   , , ,
 INTEGER, , "SubDivY"   , , ,
 INTEGER, , "SubDivZ"   , , ,
 FLOAT  , , "OffsetX"   , , ,
 FLOAT  , , "OffsetY"   , , ,
 FLOAT  , , "OffsetZ"   , , ,
 FLOAT  , , "BoxLengthX", , ,
 FLOAT  , , "BoxLengthY", , ,
 FLOAT  , , "BoxLengthZ", , ,
*PARAMETER TABLE TYPE, NAME="ABQ_AM_MovingHeatSource_Goldak", PARAMETERS=10
 INTEGER, , "SubDivX"      , , ,
 INTEGER, , "SubDivY"      , , ,
 INTEGER, , "SubDivZ"      , , ,
 FLOAT  , , "a"            , , ,
 FLOAT  , , "b"            , , ,
 FLOAT  , , "cf"           , , ,
 FLOAT  , , "cr"           , , ,
 FLOAT  , , "ff"           , , ,
 FLOAT  , , "fr"           , , ,
 FLOAT  , , "BoxSizeFactor", , ,
*PARAMETER TABLE TYPE, NAME="ABQ_AM_MovingHeatSource_Advanced", PARAMETERS = 7
 STRING, "False"   , "Conserve total energy" , , "True|False"       ,
 STRING, "False"   , "Control increment size", , "True|False"       ,
 STRING, "Relative", "Offset type"           , , "Absolute|Relative",
 FLOAT , 0.0       , "VectorX"               , ,                    ,
 FLOAT , 0.0       , "VectorY"               , ,                    ,
 FLOAT , -1.0      , "VectorZ"               , ,                    ,
 FLOAT , 1.0       , "Field factor"          , ,                    ,
*PARAMETER TABLE TYPE,  NAME="ABQ_AM_MovingHeatSource_VariableBeadSize", PARAMETERS = 2
 INTEGER, 5, "ES field ID for height",L,"zero indicates constant bead height"
 INTEGER, 6, "ES field ID for width",L,"zero indicates constant bead width"
*PROPERTY TABLE TYPE, NAME="ABQ_AM_AbsorptionCoeff", PROP=1
 "Absorption coefficient (between 0 and 1)"
*PARAMETER TABLE TYPE, NAME="ABQ_AM_ThermoMech_PatternBased_Activation", PARAMETERS=13
 FLOAT,  1.0,       "Slice height",                          L,,
 FLOAT,  1.0,       "OriAX",                                 L,,
 FLOAT,  0.0,       "OriAY",                                 L,,
 FLOAT,  0.0,       "OriAZ",                                 L,,
 FLOAT,  0.0,       "OriBX",                                 L,,
 FLOAT,  1.0,       "OriBY",                                 L,,
 FLOAT,  0.0,       "OriBZ",                                 L,,
 FLOAT,  0.0,       "OriCX",                                 L,,
 FLOAT,  0.0,       "OriCY",                                 L,,
 FLOAT,  0.0,       "OriCZ",                                 L,,
 FLOAT,  0.0,       "Recoater time",                         T,,
 FLOAT,  0.0,       "Print start time",                      T,,
 STRING, "TOTALTIME","Step or total time for print start time",T,"STEPTIME|TOTALTIME",
*PARAMETER TABLE TYPE, NAME="ABQ_AM_ThermoMech_ScanParameter_Define", Parameters = 4
 FLOAT, 0.0, "Power",          , ,
 FLOAT, 0.0, "Width/Hatch/Scan Spacing",          , ,
 FLOAT, 0.0, "Speed",          , ,
 FLOAT, 0.0, "OnTimeFraction", , ,
*PARAMETER TABLE TYPE, NAME="ABQ_AM_ThermoMech_PatternBased_Define", PARAMETERS=6
 FLOAT, 0.0,     "XLocalMin"  ,,
 FLOAT, 0.0,     "YLocalMin"  ,,
 FLOAT, 1000.0,  "XLocalMax"  ,,
 FLOAT, 1000.0,  "YLocalMax"  ,,
 STRING," ",     "LABEL of a table of type ABQ_AM_ThermoMech_ScanParameter_Define", , ,
 FLOAT, 0.0,     "Initial in-plane rotation",,
*PARAMETER TABLE TYPE, NAME="ABQ_AM_ThermoMech_PatternBased_ScanStrategy_Define", PARAMETERS=8
 STRING,  " ", "Pattern"                ,,
 FLOAT,   0.0, "Relative Rotation Angle",,
 FLOAT, -1e36, "XMin"                   ,,
 FLOAT, -1e36, "YMin"                   ,,
 FLOAT, -1e36, "ZMin"                   ,,
 FLOAT,  1e36, "XMax"                   ,,
 FLOAT,  1e36, "YMax"                   ,,
 FLOAT,  1e36, "ZMax"                   ,,
*PARAMETER TABLE TYPE, NAME="ABQ_AM_ThermoMech_PatternBased_ScanStrategy_Define_Elset", PARAMETERS=3
 STRING,  " ", "Pattern"                 ,,
 FLOAT,   0.0, "Relative Rotation Angle" ,,
 STRING,  " ", "Elset Name"              ,,
*PARAMETER TABLE TYPE, NAME="ABQ_AM_ThermoMech_PatternBased_ScanStrategies", PARAMETERS=1 
 STRING," ", "Name of table of type ABQ_AM_ThermoMech_PatternBased_ScanStrategy_Define", ,,
*PARAMETER TABLE TYPE, NAME="ABQ_AM_ThermoMech_Activation_Advanced", PARAMETERS=4
 STRING, "Full", "Element Activation"               , , "Full|Partial",
 FLOAT,     0.0, "MIN VOL FRAC PARTIAL ACTIVATION"  , , "",    
 FLOAT,     1.0, "MAX VOL FRAC PARTIAL ACTIVATION"  , , "",     
 FLOAT,     0.0, "MAX VOL FRAC FULL ACTIVATION"     , , "", 
*PARAMETER TABLE TYPE, NAME="ABQ_AM_ThermoMech_PatternBased_Advanced", PARAMETERS=2
 STRING, "SWEEP"  , "Activation technique"              , , "SWEEP|LAYERBYLAYER",
 INTEGER,        1, "Number of slice per time increment", , ,
*PARAMETER TABLE TYPE, NAME="ABQ_AM_ThermoMech_PatternParameters", PARAMETERS=1 
 STRING," ", "LABEL of the table collection for ACTIVATE ELEMENT", , ,
*EVENT SERIES TYPE, NAME="ABQ_AM_HeatSourceTrajectory_RuleID", Fields=1
 "Rule #"
*PARAMETER TABLE TYPE, NAME="ABQ_AM_EigenStrain_Method", PARAMETERS=1
 STRING, "TrajectoryBased", "Activation type", , "PatternBased|TrajectoryBased",
*PARAMETER TABLE TYPE, NAME="ABQ_AM_EigenStrain_Define", Parameters = 6
 FLOAT, 0.0, "Eig11", , ,
 FLOAT, 0.0, "Eig22", , ,
 FLOAT, 0.0, "Eig33", , ,
 FLOAT, 0.0, "Eig12", , ,
 FLOAT, 0.0, "Eig13", , ,
 FLOAT, 0.0, "Eig23", , ,
*PARAMETER TABLE TYPE, NAME="ABQ_AM_EigenStrain_Activation_Advanced", PARAMETERS=5
 STRING,  "Full"             , "Element activation" , , "Full|Partial"              ,
 FLOAT,   0.0                , "Min volume fraction for partial activation", ,      ,
 FLOAT,   1.0                , "Max volume fraction for partial activation", ,      ,
 FLOAT,   0.0                , "Max volume fraction for full activation", ,         ,
 STRING,  "FirstIntersection", "Avg technology"     , , "FirstIntersection|Averaged",
*PARAMETER TABLE TYPE, NAME="ABQ_AM_EigenStrain_TrajectoryBased_Activation", PARAMETERS = 5
 STRING, " "    , "Deposition head event series", ,              ,
 STRING, "Z"    , "Stack direction"             , , "X|Y|Z"      ,
 FLOAT , 1.0    , "Bead height"                 , ,              ,
 FLOAT , 1.0    , "Bead width"                  , ,              ,
 STRING, "Below", "Deposition position"         , , "Below|Above|Middle",
*PARAMETER TABLE TYPE, NAME="ABQ_AM_EigenStrain_TrajectoryBased_Rule_Define", PARAMETERS=1
 STRING, " ", "Label of an EigenStrain_Define table", , ,
*PARAMETER TABLE TYPE, NAME="ABQ_AM_EigenStrain_TrajectoryBased_Rules", PARAMETERS=1
 STRING, " ", "Trajectory rule name", , ,
*PARAMETER TABLE TYPE, NAME="ABQ_AM_EigenStrain_PatternBased_Activation", PARAMETERS=13
 FLOAT , 1.0         , "Slice height"   , ,                     ,
 FLOAT , 1.0         , "OriAX"          , ,                     ,
 FLOAT , 0.0         , "OriAY"          , ,                     ,
 FLOAT , 0.0         , "OriAZ"          , ,                     ,
 FLOAT , 0.0         , "OriBX"          , ,                     ,
 FLOAT , 1.0         , "OriBY"          , ,                     ,
 FLOAT , 0.0         , "OriBZ"          , ,                     ,
 FLOAT , 0.0         , "OriCX"          , ,                     ,
 FLOAT , 0.0         , "OriCY"          , ,                     ,
 FLOAT , 0.0         , "OriCZ"          , ,                     ,
 STRING, "TotalTime" , "Total/Step time", , "TotalTime|StepTime",
 FLOAT , -1e36       , "Start time"     , ,                     ,
 FLOAT , +1e36       , "End time"       , ,                     ,
*PARAMETER TABLE TYPE, NAME="ABQ_AM_EigenStrain_PatternBased_Define", PARAMETERS=6
 FLOAT , 0.0   , "xmin"                                , , ,
 FLOAT , 0.0   , "ymin"                                , , ,
 FLOAT , 1000.0, "xmax"                                , , ,
 FLOAT , 1000.0, "ymax"                                , , ,
 STRING, " "   , "Label of an EigenStrain_Define table", , ,
 FLOAT , 0.0   , "Local in-plane rotation (in degrees)", , ,
*PARAMETER TABLE TYPE, NAME="ABQ_AM_EigenStrain_PatternBased_ScanStrategy_Define", PARAMETERS=8
 STRING, " "  , "Pattern"                             , , ,
 FLOAT , 0.0  , "Relative rotation angle (in degrees)", , ,
 FLOAT , -1e36, "Xmin"                                , , ,
 FLOAT , -1e36, "Ymin"                                , , ,
 FLOAT , -1e36, "Zmin"                                , , ,
 FLOAT ,  1e36, "Xmax"                                , , ,
 FLOAT ,  1e36, "Ymax"                                , , ,
 FLOAT ,  1e36, "Zmax"                                , , ,
*PARAMETER TABLE TYPE, NAME="ABQ_AM_EigenStrain_PatternBased_ScanStrategy_Define_Elset", PARAMETERS=3
 STRING, " "  , "Pattern"                              , , ,
 FLOAT , 0.0  , "Relative rotation angle (in degrees)" , , ,
 STRING, " "  , "Elset Name"                           , , ,
*PARAMETER TABLE TYPE, NAME="ABQ_AM_EigenStrain_PatternBased_ScanStrategies", PARAMETERS=1
 STRING, " ", "Scan strategy", , ,
*PARAMETER TABLE TYPE, NAME="ABQ_AM_EigenStrain_PatternBased_Advanced", PARAMETERS=2
 STRING, "SWEEP", "Activation technique"        , , "SWEEP|LAYERBYLAYER",
 STRING, "TRUE" , "One slice per time increment", , "TRUE|FALSE"        ,
*PARAMETER TABLE TYPE,  NAME="ABQ_AM_BladeInterference", PARAMETERS = 2
FLOAT, 0.0,"Powder Thickness", L,"If the value = 0 then information comes from PTK otherwise this value is used"
FLOAT, 1.0,"Risk Factor",Dimensionless," "
*PARAMETER TABLE TYPE,  NAME="ABQ_AM_MaterialDeposition_Bead_Orientation", PARAMETERS = 3
 FLOAT,0,"Bead orientation x",L,""
 FLOAT,0,"Bead orientation y",L,""
 FLOAT,1,"Bead orientation z",L,""
*PARAMETER TABLE TYPE,  NAME="ABQ_AM_MaterialRemoval_Bead_Orientation", PARAMETERS = 3
 FLOAT,0,"Removal bead orientation x",L,""
 FLOAT,0,"Removal bead orientation y",L,""
 FLOAT,1,"Removal bead orientation z",L,""
*PARAMETER TABLE TYPE,  NAME="ABQ_AM_MaterialRemoval", PARAMETERS = 1
 STRING, ,"Event Series",,"Event Series"
*PARAMETER TABLE TYPE,  NAME="ABQ_AM_MaterialRemoval_Bead", PARAMETERS = 5
 STRING, ,"Stack Direction",, "X|Y|Z"
 FLOAT,  ,"Bead Height",L,"Height of the bead deposition cross-section"
 FLOAT,  ,"Bead Width",L,"Width of the bead deposition cross-section"
 FLOAT,  ,"Activation Offset",L," "
 STRING, ,"Deposition Position",,"Below|Above|Middle"
*PARAMETER TABLE TYPE,  NAME="ABQ_AM_MaterialRemoval_VariableBeadSize", PARAMETERS = 2
 INTEGER, 5, "ES field ID for height",L,"zero indicates constant bead height"
 INTEGER, 6, "ES field ID for width",L,"zero indicates constant bead width"
*PARAMETER TABLE TYPE,  NAME="ABQ_AM_MaterialRemoval_Advanced", PARAMETERS = 5
 STRING,"Partial","Activation Type",Dimensionless, "Full|Partial"
 FLOAT,1.0,"Deactivation Threshold",Dimensionless, "For partial activation"
 FLOAT,1.0,"Max Volume fraction",Dimensionless, "For partial activation"
 FLOAT,0.0,"Max Volume fraction",Dimensionless, "For full activation"
 INTEGER,0,"Element subdivision order",Dimensionless, "set to zero for automatic subdivision order"
*PARAMETER TABLE TYPE,  NAME="ABQ_AM_MaterialDeposition_5AxisStrategy", PARAMETERS = 4
 STRING,"True","Ignore lead angle/Consider only tilt", , "True|False"
 INTEGER,2,"ES field ID for normal vector component x",L," "
 INTEGER,3,"ES field ID for normal vector component y",L," "
 INTEGER,4,"ES field ID for normal vector component z",L," "
*PARAMETER TABLE TYPE,  NAME="ABQ_AM_MovingHeatSource_5AxisStrategy", PARAMETERS = 4
 STRING,"True","Ignore lead angle/Consider only tilt", , "True|False"
 INTEGER,2,"ES field ID for normal vector component x",L," "
 INTEGER,3,"ES field ID for normal vector component y",L," "
 INTEGER,4,"ES field ID for normal vector component z",L," "
*PARAMETER TABLE TYPE,  NAME="ABQ_AM_MaterialRemoval_5AxisStrategy", PARAMETERS = 4
 STRING,"True","Ignore lead angle/Consider only tilt", , "True|False"
 INTEGER,2,"ES field ID for normal vector component x",L," "
 INTEGER,3,"ES field ID for normal vector component y",L," "
 INTEGER,4,"ES field ID for normal vector component z",L," "
*EVENT SERIES TYPE, Fields=4, NAME="ABQ_AM_PowerMagnitude_5AxisStrategy"
 "Power", ML2T03
 "ES field ID for normal vector component x",L
 "ES field ID for normal vector component y",L
 "ES field ID for normal vector component z",L
*EVENT SERIES TYPE, Fields=5, NAME="ABQ_AM_PowerMagnitude_5AxisStrategy_width"
 "Power", ML2T03
 "ES field ID for normal vector component x",L
 "ES field ID for normal vector component y",L
 "ES field ID for normal vector component z",L
 "ES field ID for width", L
*EVENT SERIES TYPE, Fields=2, NAME="ABQ_AM_MaterialDeposition_VariableWidth"
 "On and off", Dimensionless
 "Width", L
*EVENT SERIES TYPE, Fields=3, NAME="ABQ_AM_MaterialDeposition_VariableHeightWidth"
 "On and off", Dimensionless
 "Height", L
 "Width", L
*EVENT SERIES TYPE, Fields=2, NAME="ABQ_AM_MaterialDeposition_VariableHeight"
 "On and off", Dimensionless
 "Height", L
*EVENT SERIES TYPE, Fields=4, NAME="ABQ_AM_MaterialDeposition_5AxisStrategy"
 "On and off", Dimensionless
 "ES field ID for normal vector component x",L
 "ES field ID for normal vector component y",L
 "ES field ID for normal vector component z",L
*EVENT SERIES TYPE, Fields=5, NAME="ABQ_AM_MaterialDeposition_5AxisStrategy_width"
 "On and off", Dimensionless
 "ES field ID for normal vector component x",L
 "ES field ID for normal vector component y",L
 "ES field ID for normal vector component z",L
 "ES field ID for width", L
*EVENT SERIES TYPE, Fields=6, NAME="ABQ_AM_MaterialDeposition_5AxisStrategy_VariableCrossSection"
 "On and off", Dimensionless
 "ES field ID for normal vector component x",L
 "ES field ID for normal vector component y",L
 "ES field ID for normal vector component z",L
 "ES field ID for height", L
 "ES field ID for width", L
*EVENT SERIES TYPE, Fields=6, NAME="ABQ_AM_MovingHeatSource_5AxisStrategy_VariableCrossSection"
 "Power", ML2T03
 "ES field ID for normal vector component x",L
 "ES field ID for normal vector component y",L
 "ES field ID for normal vector component z",L
 "ES field ID for height", L
 "ES field ID for width", L
*NODE
         1,  -12.0299969    ,  6.69999981     ,  25.3999996     
         2,  -12.0299969    ,  0.0            ,  25.3999996     
         3,  -2.889994      ,  0.0            ,  25.3999996     
         4,  -2.889994      ,  6.69999981     ,  25.3999996     
         5,  -12.0299969    ,  6.69999981     ,  12.6999998     
         6,  -2.889994      ,  6.69999981     ,  12.6999998     
         7,  -12.0299969    ,  0.0            ,  12.6999998     
         8,  -2.889994      ,  0.0            ,  12.6999998     
         9,  -21.17         ,  6.69999981     ,  25.3999996     
        10,  -21.17         ,  0.0            ,  25.3999996     
        11,  -21.17         ,  6.69999981     ,  12.6999998     
        12,  -21.17         ,  0.0            ,  12.6999998     
        13,  -46.5699996    ,  0.0            ,  15.875         
        14,  -46.5699996    ,  0.0            ,  12.6999998     
        15,  -55.033329     ,  0.0            ,  15.875         
        16,  -55.033329     ,  0.0            ,  12.6999998     
        17,  -50.7999992    ,  0.0            ,  15.875         
        18,  -46.5699996    ,  6.69999981     ,  12.6999998     
        19,  -46.5699996    ,  6.69999981     ,  15.875         
        20,  -55.033329     ,  6.69999981     ,  12.6999998     
** ... 6469 like lines cut
**HW_COMPONENT     ID=1     COLOR=11     NAME=PartToFabricate     PROPERTY=PartToFabricate
*ELEMENT,TYPE=DC3D8,ELSET=PartToFabricate
         1,       126,      1019,      2892,       779,         1,        45,       569,        81
         2,      1019,      1020,      2893,      2892,        45,        46,       570,       569
         3,      1020,      1021,      2894,      2893,        46,        47,       571,       570
         4,      1021,      1022,      2895,      2894,        47,        48,       572,       571
         5,      1022,      1023,      2896,      2895,        48,        49,       573,       572
         6,      1023,      1024,      2897,      2896,        49,        50,       574,       573
         7,      1024,      1025,      2898,      2897,        50,        51,       575,       574
         8,      1025,       127,       899,      2898,        51,         2,        52,       575
         9,       779,      2892,      2899,       780,        81,       569,       576,        80
        10,      2892,      2893,      2900,      2899,       569,       570,       577,       576
        11,      2893,      2894,      2901,      2900,       570,       571,       578,       577
        12,      2894,      2895,      2902,      2901,       571,       572,       579,       578
        13,      2895,      2896,      2903,      2902,       572,       573,       580,       579
        14,      2896,      2897,      2904,      2903,       573,       574,       581,       580
        15,      2897,      2898,      2905,      2904,       574,       575,       582,       581
        16,      2898,       899,       900,      2905,       575,        52,        53,       582
        17,       780,      2899,      2906,       781,        80,       576,       583,        79
        18,      2899,      2900,      2907,      2906,       576,       577,       584,       583
        19,      2900,      2901,      2908,      2907,       577,       578,       585,       584
        20,      2901,      2902,      2909,      2908,       578,       579,       586,       585
** ... 2140 like lines cut
**HW_COMPONENT     ID=2     COLOR=43     NAME=Substrate     PROPERTY=Substrate
*ELEMENT,TYPE=DC3D8,ELSET=Substrate
      2161,       192,      1285,      3732,      1229,         7,       157,      1131,       170
      2162,      1285,      1286,      3733,      3732,       157,       158,      1132,      1131
      2163,      1286,      1287,      3734,      3733,       158,       159,      1133,      1132
      2164,      1287,      1288,      3735,      3734,       159,       160,      1134,      1133
      2165,      1288,      1289,      3736,      3735,       160,       161,      1135,      1134
      2166,      1289,      1290,      3737,      3736,       161,       162,      1136,      1135
      2167,      1290,      1291,      3738,      3737,       162,       163,      1137,      1136
      2168,      1291,       127,      1025,      3738,       163,         2,        51,      1137
      2169,      1229,      3732,      3739,      1230,       170,      1131,      1138,       169
      2170,      3732,      3733,      3740,      3739,      1131,      1132,      1139,      1138
      2171,      3733,      3734,      3741,      3740,      1132,      1133,      1140,      1139
      2172,      3734,      3735,      3742,      3741,      1133,      1134,      1141,      1140
      2173,      3735,      3736,      3743,      3742,      1134,      1135,      1142,      1141
      2174,      3736,      3737,      3744,      3743,      1135,      1136,      1143,      1142
      2175,      3737,      3738,      3745,      3744,      1136,      1137,      1144,      1143
      2176,      3738,      1025,      1024,      3745,      1137,        51,        50,      1144
      2177,      1230,      3739,      3746,      1231,       169,      1138,      1145,       168
      2178,      3739,      3740,      3747,      3746,      1138,      1139,      1146,      1145
      2179,      3740,      3741,      3748,      3747,      1139,      1140,      1147,      1146
      2180,      3741,      3742,      3749,      3748,      1140,      1141,      1148,      1147
** ... 2156 like lines cut
**HW_COMPONENT     ID=3     COLOR=59     NAME=Clamp     PROPERTY=Clamp
*ELEMENT,TYPE=DC3D8,ELSET=Clamp
      4337,       296,      2077,      5356,      1964,        20,       345,      2063,       291
      4338,      2077,      2078,      5357,      5356,       345,       346,      2064,      2063
      4339,      2078,      2079,      5358,      5357,       346,       347,      2065,      2064
      4340,      2079,      2080,      5359,      5358,       347,       348,      2066,      2065
      4341,      2080,      2081,      5360,      5359,       348,       349,      2067,      2066
      4342,      2081,      2082,      5361,      5360,       349,       350,      2068,      2067
      4343,      2082,      2083,      5362,      5361,       350,       351,      2069,      2068
      4344,      2083,       285,      1961,      5362,       351,        16,       284,      2069
      4345,      1964,      5356,      2098,       293,       291,      2063,       358,        21
      4346,      5356,      5357,      2099,      2098,      2063,      2064,       357,       358
      4347,      5357,      5358,      2100,      2099,      2064,      2065,       356,       357
      4348,      5358,      5359,      2101,      2100,      2065,      2066,       355,       356
      4349,      5359,      5360,      2102,      2101,      2066,      2067,       354,       355
      4350,      5360,      5361,      2103,      2102,      2067,      2068,       353,       354
      4351,      5361,      5362,      2104,      2103,      2068,      2069,       352,       353
      4352,      5362,      1961,       289,      2104,      2069,       284,        15,       352
      4353,       295,      2084,      5363,      1963,       296,      2077,      5356,      1964
      4354,      2084,      2085,      5364,      5363,      2077,      2078,      5357,      5356
      4355,      2085,      2086,      5365,      5364,      2078,      2079,      5358,      5357
      4356,      2086,      2087,      5366,      5365,      2079,      2080,      5359,      5358
** ... 780 like lines cut
**HMNAME PROPERTY          1 PartToFabricate    11
*SOLID SECTION, ELSET=PartToFabricate, MATERIAL=Inconel625
**HMNAME PROPERTY          2 Substrate    43
*SOLID SECTION, ELSET=Substrate, MATERIAL=Inconel625
**HMNAME PROPERTY          3 Clamp    59
*SOLID SECTION, ELSET=Clamp, MATERIAL=Aluminum
**HW_FORMULA_SET     ID=1
*NSET, NSET=All, GENERATE
         1,     78372,         1
**HW_SET     ID=9
*NSET, NSET=Clamp:1
        13,        14,        15,        16,        17,        18,        19,        20,
        21,        22,        23,        24,        25,        26,        27,        28,
        29,        30,        31,        32,        33,        34,        35,        36,
        37,        38,        39,        40,       283,       284,       285,       286,
       287,       288,       289,       290,       291,       292,       293,       294,
       295,       296,       297,       298,       299,       300,       301,       302,
       303,       304,       305,       306,       307,       308,       309,       310,
       311,       312,       313,       314,       315,       316,       317,       318,
       319,       320,       321,       322,       323,       324,       325,       326,
       327,       328,       329,       330,       331,       332,       333,       334,
       335,       336,       337,       338,       339,       340,       341,       342,
       343,       344,       345,       346,       347,       348,       349,       350,
       351,       352,       353,       354,       355,       356,       357,       358,
       359,       360,       361,       362,       363,       364,       365,       366,
       367,       368,       369,       370,       371,       372,       373,       374,
       375,       376,       377,       378,       379,       380,       381,       382,
       383,       384,       385,       386,       387,       388,       389,       390,
       391,       392,       393,       394,       395,       396,       397,       398,
       399,       400,       401,       402,       403,       404,       405,       406,
       407,       408,       409,       410,       411,       412,       413,       414,
** ... 130 like lines cut
**HW_SET     ID=10
*NSET, NSET=ClampBottom:1
        23,        25,        27,        28,       311,       312,       313,       314,
       315,       316,       317,       324,       325,       326,       327,       328,
       329,       330,       416,       417,       418,       419,       420,       421,
       422,       430,       431,       432,       433,       434,       435,       436,
      2318,      2319,      2320,      2321,      2322,      2323,      2324,      2325,
      2326,      2327,      2328,      2329,      2330,      2331,      2332,      2333,
      2334,      2335,      2336,      2337,      2338,      2339,      2340,      2341,
      2342,      2343,      2344,      2345,      2346,      2347,      2348,      2349,
      2350,      2351,      2352,      2353,      2354,      2355,      2356,      2357,
      2358,      2359,      2360,      2361,      2362,      2363,      2364,      2365,
      2366,
**HW_SET     ID=11
*NSET, NSET=ClampTop:1
        33,        34,        39,        40,       439,       440,       441,       442,
       443,       444,       445,       468,       469,       470,       471,       472,
       473,       474,       475,       476,       477,       478,       479,       480,
       481,       482,       483,       484,       485,       486,       487,       488,
      2402,      2403,      2404,      2405,      2406,      2407,      2408,      2409,
      2410,      2411,      2412,      2413,      2414,      2415,      2416,      2417,
      2418,      2419,      2420,      2421,      2422,      2423,      2424,      2425,
      2426,      2427,      2428,      2429,      2430,      2431,      2432,      2433,
      2434,      2435,      2436,      2437,      2438,      2439,      2440,      2441,
      2442,      2443,      2444,      2445,      2446,      2447,      2448,      2449,
      2450,
**HW_SET     ID=12
*NSET, NSET=PartToFabricate:1
         1,         2,         3,         4,         9,        10,        45,        46,
        47,        48,        49,        50,        51,        52,        53,        54,
        55,        56,        57,        58,        59,        60,        61,        62,
        63,        64,        65,        66,        67,        68,        69,        70,
        71,        72,        73,        74,        75,        76,        77,        78,
        79,        80,        81,        82,        83,        84,        85,        86,
        87,        88,        89,        90,        91,        92,        93,        94,
        95,        96,        97,        98,        99,       100,       101,       102,
       103,       104,       105,       106,       107,       108,       109,       110,
       111,       112,       113,       114,       115,       116,       117,       118,
       119,       120,       121,       122,       123,       124,       125,       126,
       127,       128,       129,       130,       131,       132,       133,       134,
       193,       194,       195,       196,       197,       198,       199,       200,
       201,       202,       203,       204,       205,       206,       207,       208,
       209,       210,       211,       212,       213,       214,       215,       216,
       217,       218,       219,       220,       221,       222,       223,       224,
       225,       226,       227,       228,       229,       230,       231,       232,
       233,       234,       235,       236,       237,       238,       239,       240,
       241,       242,       243,       244,       245,       569,       570,       571,
       572,       573,       574,       575,       576,       577,       578,       579,
** ... 322 like lines cut
**HW_SET     ID=13
*NSET, NSET=Substrate:1
         1,         2,         3,         4,         5,         6,         7,         8,
         9,        10,        11,        12,        13,        14,        18,        19,
        24,        26,        35,        36,        37,        38,        41,        42,
        43,        44,        45,        46,        47,        48,        49,        50,
        51,        82,        83,        84,        85,        86,        87,        88,
       119,       120,       121,       122,       123,       124,       125,       126,
       127,       128,       129,       130,       131,       132,       133,       134,
       135,       136,       137,       138,       139,       140,       141,       142,
       143,       144,       145,       146,       147,       148,       149,       150,
       151,       152,       153,       154,       155,       156,       157,       158,
       159,       160,       161,       162,       163,       164,       165,       166,
       167,       168,       169,       170,       171,       172,       173,       174,
       175,       176,       177,       178,       179,       180,       181,       182,
       183,       184,       185,       186,       187,       188,       189,       190,
       191,       192,       193,       194,       195,       196,       197,       198,
       199,       230,       231,       232,       233,       234,       235,       236,
       237,       238,       239,       240,       241,       242,       243,       244,
       245,       246,       247,       248,       249,       250,       251,       252,
       253,       254,       255,       256,       257,       258,       259,       260,
       261,       262,       263,       264,       265,       266,       267,       268,
** ... 335 like lines cut
**HW_SET     ID=14
*NSET, NSET=PartAndSubstrate:1
         1,         2,         3,         4,         5,         6,         7,         8,
         9,        10,        11,        12,        13,        14,        18,        19,
        24,        26,        35,        36,        37,        38,        41,        42,
        43,        44,        45,        46,        47,        48,        49,        50,
        51,        52,        53,        54,        55,        56,        57,        58,
        59,        60,        61,        62,        63,        64,        65,        66,
        67,        68,        69,        70,        71,        72,        73,        74,
        75,        76,        77,        78,        79,        80,        81,        82,
        83,        84,        85,        86,        87,        88,        89,        90,
        91,        92,        93,        94,        95,        96,        97,        98,
        99,       100,       101,       102,       103,       104,       105,       106,
       107,       108,       109,       110,       111,       112,       113,       114,
       115,       116,       117,       118,       119,       120,       121,       122,
       123,       124,       125,       126,       127,       128,       129,       130,
       131,       132,       133,       134,       135,       136,       137,       138,
       139,       140,       141,       142,       143,       144,       145,       146,
       147,       148,       149,       150,       151,       152,       153,       154,
       155,       156,       157,       158,       159,       160,       161,       162,
       163,       164,       165,       166,       167,       168,       169,       170,
       171,       172,       173,       174,       175,       176,       177,       178,
** ... 655 like lines cut
**HW_SET     ID=15
*NSET, NSET=NCenter
        48,       167,       572,       579,       586,       593,       600,       607,
       614,       621,       628,       635,       642,       649,       656,       663,
       670,      1152,      1153,      1154,      1155,      1156,      1157,      1158
**HW_SET     ID=16
*NSET, NSET=NOutputLDS
      2545,
**HW_SET     ID=17
*NSET, NSET=NOutputTC2
       167,
**HW_SET     ID=18
*NSET, NSET=NOutputTC1
       181,
**HW_SET     ID=19
*NSET, NSET=NOutputTC3
       271,
**HW_SET     ID=2
*ELSET, ELSET=All, GENERATE
         1,     67536,         1
**HW_SET     ID=3
*ELSET, ELSET=Clamp
      4337,      4338,      4339,      4340,      4341,      4342,      4343,      4344,
      4345,      4346,      4347,      4348,      4349,      4350,      4351,      4352,
      4353,      4354,      4355,      4356,      4357,      4358,      4359,      4360,
      4361,      4362,      4363,      4364,      4365,      4366,      4367,      4368,
      4369,      4370,      4371,      4372,      4373,      4374,      4375,      4376,
      4377,      4378,      4379,      4380,      4381,      4382,      4383,      4384,
      4385,      4386,      4387,      4388,      4389,      4390,      4391,      4392,
      4393,      4394,      4395,      4396,      4397,      4398,      4399,      4400,
      4401,      4402,      4403,      4404,      4405,      4406,      4407,      4408,
      4409,      4410,      4411,      4412,      4413,      4414,      4415,      4416,
      4417,      4418,      4419,      4420,      4421,      4422,      4423,      4424,
      4425,      4426,      4427,      4428,      4429,      4430,      4431,      4432,
      4433,      4434,      4435,      4436,      4437,      4438,      4439,      4440,
      4441,      4442,      4443,      4444,      4445,      4446,      4447,      4448,
      4449,      4450,      4451,      4452,      4453,      4454,      4455,      4456,
      4457,      4458,      4459,      4460,      4461,      4462,      4463,      4464,
      4465,      4466,      4467,      4468,      4469,      4470,      4471,      4472,
      4473,      4474,      4475,      4476,      4477,      4478,      4479,      4480,
      4481,      4482,      4483,      4484,      4485,      4486,      4487,      4488,
      4489,      4490,      4491,      4492,      4493,      4494,      4495,      4496,
** ... 80 like lines cut
**HW_SET     ID=4
*ELSET, ELSET=ClampBottom
      4553,      4554,      4555,      4556,      4557,      4558,      4559,      4560,
      4617,      4618,      4619,      4620,      4621,      4622,      4623,      4624,
      4681,      4682,      4683,      4684,      4685,      4686,      4687,      4688,
      4745,      4746,      4747,      4748,      4749,      4750,      4751,      4752,
      4809,      4810,      4811,      4812,      4813,      4814,      4815,      4816,
      4873,      4874,      4875,      4876,      4877,      4878,      4879,      4880,
      4937,      4938,      4939,      4940,      4941,      4942,      4943,      4944,
      5001,      5002,      5003,      5004,      5005,      5006,      5007,      5008
**HW_SET     ID=5
*ELSET, ELSET=ClampTop
      5073,      5074,      5075,      5076,      5077,      5078,      5079,      5080,
      5081,      5082,      5083,      5084,      5085,      5086,      5087,      5088,
      5089,      5090,      5091,      5092,      5093,      5094,      5095,      5096,
      5097,      5098,      5099,      5100,      5101,      5102,      5103,      5104,
      5105,      5106,      5107,      5108,      5109,      5110,      5111,      5112,
      5113,      5114,      5115,      5116,      5117,      5118,      5119,      5120,
      5121,      5122,      5123,      5124,      5125,      5126,      5127,      5128,
      5129,      5130,      5131,      5132,      5133,      5134,      5135,      5136
**HW_SET     ID=6
*ELSET, ELSET=PartToFabricate
         1,         2,         3,         4,         5,         6,         7,         8,
         9,        10,        11,        12,        13,        14,        15,        16,
        17,        18,        19,        20,        21,        22,        23,        24,
        25,        26,        27,        28,        29,        30,        31,        32,
        33,        34,        35,        36,        37,        38,        39,        40,
        41,        42,        43,        44,        45,        46,        47,        48,
        49,        50,        51,        52,        53,        54,        55,        56,
        57,        58,        59,        60,        61,        62,        63,        64,
        65,        66,        67,        68,        69,        70,        71,        72,
        73,        74,        75,        76,        77,        78,        79,        80,
        81,        82,        83,        84,        85,        86,        87,        88,
        89,        90,        91,        92,        93,        94,        95,        96,
        97,        98,        99,       100,       101,       102,       103,       104,
       105,       106,       107,       108,       109,       110,       111,       112,
       113,       114,       115,       116,       117,       118,       119,       120,
       121,       122,       123,       124,       125,       126,       127,       128,
       129,       130,       131,       132,       133,       134,       135,       136,
       137,       138,       139,       140,       141,       142,       143,       144,
       145,       146,       147,       148,       149,       150,       151,       152,
       153,       154,       155,       156,       157,       158,       159,       160,
** ... 250 like lines cut
**HW_SET     ID=7
*ELSET, ELSET=Substrate
      2161,      2162,      2163,      2164,      2165,      2166,      2167,      2168,
      2169,      2170,      2171,      2172,      2173,      2174,      2175,      2176,
      2177,      2178,      2179,      2180,      2181,      2182,      2183,      2184,
      2185,      2186,      2187,      2188,      2189,      2190,      2191,      2192,
      2193,      2194,      2195,      2196,      2197,      2198,      2199,      2200,
      2201,      2202,      2203,      2204,      2205,      2206,      2207,      2208,
      2209,      2210,      2211,      2212,      2213,      2214,      2215,      2216,
      2217,      2218,      2219,      2220,      2221,      2222,      2223,      2224,
      2225,      2226,      2227,      2228,      2229,      2230,      2231,      2232,
      2233,      2234,      2235,      2236,      2237,      2238,      2239,      2240,
      2241,      2242,      2243,      2244,      2245,      2246,      2247,      2248,
      2249,      2250,      2251,      2252,      2253,      2254,      2255,      2256,
      2257,      2258,      2259,      2260,      2261,      2262,      2263,      2264,
      2265,      2266,      2267,      2268,      2269,      2270,      2271,      2272,
      2273,      2274,      2275,      2276,      2277,      2278,      2279,      2280,
      2281,      2282,      2283,      2284,      2285,      2286,      2287,      2288,
      2289,      2290,      2291,      2292,      2293,      2294,      2295,      2296,
      2297,      2298,      2299,      2300,      2301,      2302,      2303,      2304,
      2305,      2306,      2307,      2308,      2309,      2310,      2311,      2312,
      2313,      2314,      2315,      2316,      2317,      2318,      2319,      2320,
** ... 252 like lines cut
**HW_SET     ID=8
*ELSET, ELSET=PartAndSubstrate
         1,         2,         3,         4,         5,         6,         7,         8,
         9,        10,        11,        12,        13,        14,        15,        16,
        17,        18,        19,        20,        21,        22,        23,        24,
        25,        26,        27,        28,        29,        30,        31,        32,
        33,        34,        35,        36,        37,        38,        39,        40,
        41,        42,        43,        44,        45,        46,        47,        48,
        49,        50,        51,        52,        53,        54,        55,        56,
        57,        58,        59,        60,        61,        62,        63,        64,
        65,        66,        67,        68,        69,        70,        71,        72,
        73,        74,        75,        76,        77,        78,        79,        80,
        81,        82,        83,        84,        85,        86,        87,        88,
        89,        90,        91,        92,        93,        94,        95,        96,
        97,        98,        99,       100,       101,       102,       103,       104,
       105,       106,       107,       108,       109,       110,       111,       112,
       113,       114,       115,       116,       117,       118,       119,       120,
       121,       122,       123,       124,       125,       126,       127,       128,
       129,       130,       131,       132,       133,       134,       135,       136,
       137,       138,       139,       140,       141,       142,       143,       144,
       145,       146,       147,       148,       149,       150,       151,       152,
       153,       154,       155,       156,       157,       158,       159,       160,
** ... 522 like lines cut
**------------------------------------------------
** Stefan Boltzmann constant unit: mW/(mm^2.C^4)
**------------------------------------------------
**HMNAME MATS          1 Aluminum    23
*MATERIAL, NAME=Aluminum
** Unit: mW/(mm.C)
*CONDUCTIVITY,TYPE=ISO
237.0     ,0.0       
** Unit: mJ/(tonne.C)
*SPECIFIC HEAT
910000000.,0.0       
** Unit: tonne/mm^3
*DENSITY
2.7000E-09,0.0       
**
**HMNAME MATS          2 Inconel625    43
*MATERIAL, NAME=Inconel625
** Unit: mW/(mm.C)
*CONDUCTIVITY,TYPE=ISO
9.9       ,20.0      
10.8      ,93.0      
12.5      ,205.0     
14.1      ,315.0     
15.7      ,425.0     
17.5      ,540.0     
19.0      ,650.0     
20.8      ,760.0     
22.8      ,870.0     
** Unit: mJ/(tonne.C)
*SPECIFIC HEAT
410000000.,20.0      
427000000.,93.0      
456000000.,205.0     
481000000.,315.0     
511000000.,425.0     
536000000.,540.0     
565000000.,650.0     
590000000.,760.0     
620000000.,870.0     
** Unit: tonne/mm^3
*DENSITY
8.4400E-09,0.0       
**HM_UNSUPPORTED_MATERIAL
*LATENT HEAT, SMOOTH
 272E9, 1290., 1350., 18.
**HM_UNSUPPORTED_CARDS_MIDDLE
*ELEMENT PROGRESSIVE ACTIVATION, NAME="LDED.Printing", ELSET=PartToFabricate
*TABLE COLLECTION, NAME="ABQ_AM.MaterialDeposition"
*PARAMETER TABLE, TYPE= "ABQ_AM_MaterialDeposition"
 "LDED.PrintHeadDepositionTrajectory","Bead"
*PARAMETER TABLE,  TYPE= "ABQ_AM_MaterialDeposition_Bead"
 "Z", <beadHeight>, <beadWidth>, 0.,"Below"
*PARAMETER TABLE,  TYPE= "ABQ_AM_MaterialDeposition_Advanced"
 "Full",0.0,0.0,0.01,,,
*TABLE COLLECTION, NAME="ABQ_AM.EnergyInput"
*PARAMETER TABLE,  TYPE="ABQ_AM_MovingHeatSource"
 "LDED.LaserPath","Goldak"
*PARAMETER TABLE,  TYPE="ABQ_AM_MovingHeatSource_Advanced"
 "True","False","Relative",0.0,0.0,-1.0, 1.0
*PARAMETER TABLE,  TYPE="ABQ_AM_MovingHeatSource_Goldak"
 10, 10, 10,
 <GoldakParamA>, <GoldakParamB>, <GoldakParamCF>, <GoldakParamCR>,
 <GoldakParamFF>, <GoldakParamFR>, 
 1.25
*PROPERTY TABLE, TYPE="ABQ_AM_AbsorptionCoeff"
 0.4
*Event Series, Name="LDED.PrintHeadDepositionTrajectory",
               Type="ABQ_AM_MaterialDeposition",
               Time=Total, input=./es_thinwall_dwell0.inp
*Event Series, Name="LDED.LaserPath",
               Type="ABQ_AM_PowerMagnitude",
               Time=Total, input=./es_thinwall_dwell0.inp
**HMNAME PROPERTY          4 Physical_Constant_4
*PHYSICAL CONSTANTS,ABSOLUTE ZERO = -273.15,STEFAN BOLTZMANN = 5.67e-11
**HWNAME LOADCOL          1 HM_IC_Load_Cols_1
**HWCOLOR LOADCOL          1    11
*INITIAL CONDITIONS, TYPE = TEMPERATURE
All,26.
**HMNAME LOADSTEP          1 Printing
*STEP, INC =        80000, NAME = Printing, EXTRAPOLATION = NO, UNSYMM=YES
*HEAT TRANSFER
0.5       ,1794.24   ,5.0000E-11,0.5       
**HM_UNSUPPORTED_STEP_CARD
*ACTIVATE ELEMENTS,ACTIVATION="LDED.Printing"
 "ABQ_AM.MaterialDeposition"
*OUTPUT, FIELD, FREQUENCY = 1
*NODE OUTPUT
  NT
*OUTPUT, HISTORY, FREQUENCY = 1
*NODE OUTPUT, NSET = NOutputTC1
  NT
*OUTPUT, HISTORY, FREQUENCY = 1
*NODE OUTPUT, NSET = NOutputTC2
  NT
*OUTPUT, HISTORY, FREQUENCY = 1
*NODE OUTPUT, NSET = NOutputTC3
  NT
*END STEP
**HMNAME LOADSTEP          2 Cooling
*STEP, INC =        80000, NAME = Cooling, EXTRAPOLATION = NO, UNSYMM=YES
*HEAT TRANSFER
10.0      ,500.0     ,1.0000E-09,10.0      
*OUTPUT, FIELD, FREQUENCY = 1
*NODE OUTPUT
  NT
*OUTPUT, HISTORY, FREQUENCY = 1
*NODE OUTPUT, NSET = NOutputTC1
 NT
*OUTPUT, HISTORY, FREQUENCY = 1
*NODE OUTPUT, NSET = NOutputTC2
 NT
*OUTPUT, HISTORY, FREQUENCY = 1
*NODE OUTPUT, NSET = NOutputTC3
 NT
*END STEP
**HMNAME LOADSTEP          3 MoreCooling
*STEP, INC =        80000, NAME = MoreCooling, EXTRAPOLATION = NO, UNSYMM=YES
*HEAT TRANSFER
100.0     ,10000.0   ,1.0000E-08,100.0     
*OUTPUT, FIELD, FREQUENCY = 1
*NODE OUTPUT
 NT
*OUTPUT, HISTORY, FREQUENCY = 1
*NODE OUTPUT, NSET = NOutputTC1
 NT
*OUTPUT, HISTORY, FREQUENCY = 1
*NODE OUTPUT, NSET = NOutputTC2
 NT
*OUTPUT, HISTORY, FREQUENCY = 1
*NODE OUTPUT, NSET = NOutputTC3
 NT
*END STEP
*****
**<?xml version="1.0" encoding="utf-8"?>
**<Altair_XML_Export>
**    <UDM xmlns:SOAP-ENV="http://schemas.xmlsoap.org/soap/envelope/" xmlns:SOAP-ENC="http://schemas.xmlsoap.org/soap/encoding/" xmlns:xsi="http://www.w3.org/2001/XMLSchema-instance" xmlns:xsd="http://www.w3.org/2001/XMLSchema" xmlns:udmcfg="http://schemas.altair.com/AltairUDMRuntimeConfig" xmlns:udmxml="http://schemas.altair.com/AltairUDM" xmlns:importrules="http://schemas.altair.com/hsm/importru
**        <udmxml:EntityCollection xsi:type="udmxml:EntityCollectionCType">
**            <udmxml:Entity xsi:type="udmxml:AssemblyDMCType" displayName="HW_Assembly" contentDefinitionType="UDMAssemblyDM" id="d636ab3d52defe45b33a4f0d351778e7:0">
**                <udmxml:Children>
**                    <udmxml:Child xsi:type="udmxml:ChildCType" refId="a4eb3bb888ca0847a502fc8b16f0f7a0:0" timestamp="1750451645038839" childFlags="0" groupName="boas" contentDefinitionType="UDMBOA"/>
**                </udmxml:Children>
**            </udmxml:Entity>
**            <udmxml:Entity xsi:type="udmxml:BOACType" displayName="hm1" contentDefinitionType="UDMBOA" id="a4eb3bb888ca0847a502fc8b16f0f7a0:0">
**                <udmxml:Children>
**                    <udmxml:Child xsi:type="udmxml:ChildCType" refId="4e2e0a437c713747883b0bd2264bba7a:0" timestamp="1750451645044175" childFlags="0" groupName="parts" contentDefinitionType="UDMPartProtoOcc">
**                        <AdditionalIdList xsi:type="udmxml:AdditionalIdCType" xmlns="http://schemas.altair.com/AltairUDM" keyValue="Model" keyName="displayname" contentDefinitionType="UDMPartProtoOcc"/>
**                    </udmxml:Child>
**                </udmxml:Children>
**            </udmxml:Entity>
**            <udmxml:Entity xsi:type="udmxml:PartCType" displayName="Substrate.p" contentDefinitionType="UDMPartProto" id="6fa5a20f912a104db10e6a7e742230b4:0">
**                <udmxml:Attributes>
**                    <udmxml:Attribute xsi:type="udmxml:AttributeCType" valueutf8="-" type="string" name="studyrevision" displayName="STUDY_REVISION">-</udmxml:Attribute>
**                    <udmxml:Attribute xsi:type="udmxml:AttributeCType" valueutf8="Substrate" type="string" name="HW_UID">Substrate</udmxml:Attribute>
**                    <udmxml:Attribute xsi:type="udmxml:AttributeCType" valueutf8="-" type="string" name="PLMXML_PRODUCTREVISION_REVISION">-</udmxml:Attribute>
**                </udmxml:Attributes>
**            </udmxml:Entity>
**            <udmxml:Entity xsi:type="udmxml:PartCType" displayName="am_lded_thinwall_inconel625_dwell0_ht.inp.p" contentDefinitionType="UDMPartProto" id="4de010c026537b49ac6fb892d9e09449:0">
**                <udmxml:Attributes>
**                    <udmxml:Attribute xsi:type="udmxml:AttributeCType" valueutf8="-" type="string" name="studyrevision" displayName="STUDY_REVISION">-</udmxml:Attribute>
**                    <udmxml:Attribute xsi:type="udmxml:AttributeCType" valueutf8="am_lded_thinwall_inconel625_dwell0_ht.inp" type="string" name="HW_UID">am_lded_thinwall_inconel625_dwell0_ht.inp</udmxml:Attribute>
**                    <udmxml:Attribute xsi:type="udmxml:AttributeCType" valueutf8="-" type="string" name="PLMXML_PRODUCTREVISION_REVISION">-</udmxml:Attribute>
**                </udmxml:Attributes>
**                <udmxml:Children>
**                    <udmxml:Child xsi:type="udmxml:ChildCType" refId="189447d581bea74cbb55dcf75935818b:0" timestamp="1750451645727924" childFlags="0" groupName="partprotoinst" contentDefinitionType="UDMPartProtoInst"/>
**                    <udmxml:Child xsi:type="udmxml:ChildCType" refId="c925f20627017442b04b5cf0db1b6c4c:0" timestamp="1750451645732989" childFlags="0" groupName="partprotoinst" contentDefinitionType="UDMPartProtoInst"/>
**                    <udmxml:Child xsi:type="udmxml:ChildCType" refId="5bbf7fc9c4d8564bb119d47d66f80773:0" timestamp="1750451645739003" childFlags="0" groupName="partprotoinst" contentDefinitionType="UDMPartProtoInst"/>
**                </udmxml:Children>
**            </udmxml:Entity>
**            <udmxml:Entity xsi:type="udmxml:PartCType" displayName="Module Model.p" contentDefinitionType="UDMPartProto" id="bc9fe9a0b1cf3741abfe9ca088c284a8:0">
**                <udmxml:Children>
**                    <udmxml:Child xsi:type="udmxml:ChildCType" refId="df7a35b5c68cf840a5a63428777bb427:0" timestamp="1750451645725920" childFlags="0" groupName="partprotoinst" contentDefinitionType="UDMPartProtoInst"/>
**                </udmxml:Children>
**            </udmxml:Entity>
**            <udmxml:Entity xsi:type="udmxml:PartCType" displayName="Substrate" contentDefinitionType="UDMPartProtoInst" id="c925f20627017442b04b5cf0db1b6c4c:0">
**                <udmxml:Attributes>
**                    <udmxml:Attribute xsi:type="udmxml:AttributeCType" valueutf8="1 0 0 0 0 1 0 0 0 0 1 0 0 0 0 1" type="string" name="trfmtx" displayName="Transformation matrix">1 0 0 0 0 1 0 0 0 0 1 0 0 0 0 1</udmxml:Attribute>
**                    <udmxml:Attribute xsi:type="udmxml:AttributeCType" valueutf8="true" type="boolean" name="trfmtxisrel" displayName="Is matrix relative?">true</udmxml:Attribute>
**                </udmxml:Attributes>
**                <udmxml:Children>
**                    <udmxml:Child xsi:type="udmxml:ChildCType" refId="6fa5a20f912a104db10e6a7e742230b4:0" timestamp="1750451645732989" childFlags="0" groupName="partprotos" contentDefinitionType="UDMPartProto"/>
**                </udmxml:Children>
**                <TransformationMatrix xsi:type="udmxml:TransformationMatrixCType" xmlns="http://schemas.altair.com/AltairUDM" transformationMatrixIsRelative="true" transformationMatrix="1 0 0 0 0 1 0 0 0 0 1 0 0 0 0 1"/>
**            </udmxml:Entity>
**            <udmxml:Entity xsi:type="udmxml:PartCType" displayName="am_lded_thinwall_inconel625_dwell0_ht.inp" contentDefinitionType="UDMPartProtoInst" id="df7a35b5c68cf840a5a63428777bb427:0">
**                <udmxml:Attributes>
**                    <udmxml:Attribute xsi:type="udmxml:AttributeCType" valueutf8="1 0 0 0 0 1 0 0 0 0 1 0 0 0 0 1" type="string" name="trfmtx" displayName="Transformation matrix">1 0 0 0 0 1 0 0 0 0 1 0 0 0 0 1</udmxml:Attribute>
**                    <udmxml:Attribute xsi:type="udmxml:AttributeCType" valueutf8="true" type="boolean" name="trfmtxisrel" displayName="Is matrix relative?">true</udmxml:Attribute>
**                </udmxml:Attributes>
**                <udmxml:Children>
**                    <udmxml:Child xsi:type="udmxml:ChildCType" refId="4de010c026537b49ac6fb892d9e09449:0" timestamp="1750451645725920" childFlags="0" groupName="partprotos" contentDefinitionType="UDMPartProto"/>
**                </udmxml:Children>
**                <TransformationMatrix xsi:type="udmxml:TransformationMatrixCType" xmlns="http://schemas.altair.com/AltairUDM" transformationMatrixIsRelative="true" transformationMatrix="1 0 0 0 0 1 0 0 0 0 1 0 0 0 0 1"/>
**            </udmxml:Entity>
**            <udmxml:Entity xsi:type="udmxml:PartCType" protoInstanceRefId="c925f20627017442b04b5cf0db1b6c4c:0" prototypeRefId="6fa5a20f912a104db10e6a7e742230b4:0" displayName="Substrate" contentDefinitionType="UDMPartProtoOcc" id="7cb914e76a94f74db2b7105d03b260bc:0">
**                <udmxml:Attributes>
**                    <udmxml:Attribute xsi:type="udmxml:AttributeCType" valueutf8="6fa5a20f912a104db10e6a7e742230b4" type="string" name="protoref" displayName="Prototype reference">6fa5a20f912a104db10e6a7e742230b4</udmxml:Attribute>
**                    <udmxml:Attribute xsi:type="udmxml:AttributeCType" valueutf8="c925f20627017442b04b5cf0db1b6c4c" type="string" name="protoinstanceref" displayName="Prototype Instance reference">c925f20627017442b04b5cf0db1b6c4c</udmxml:Attribute>
**                    <udmxml:Attribute xsi:type="udmxml:AttributeCType" valueutf8="Components(2)" type="string" name="EntitySelectionExp">Components(2)</udmxml:Attribute>
**                    <udmxml:Attribute xsi:type="udmxml:AttributeCType" valueutf8="2" type="string" name="SelectionExp">2</udmxml:Attribute>
**                    <udmxml:Attribute xsi:type="udmxml:AttributeCType" valueutf8="11" type="string" name="UdmxmlString_HmOccurrenceColor">11</udmxml:Attribute>
**                    <udmxml:Attribute xsi:type="udmxml:AttributeCType" valueutf8="8" type="string" name="UdmxmlString_HmOccurrenceId">8</udmxml:Attribute>
**                    <udmxml:Attribute xsi:type="udmxml:AttributeCType" valueutf8="9757073" type="string" name="UdmxmlString_HmOccurrenceTrueColor">9757073</udmxml:Attribute>
**                </udmxml:Attributes>
**            </udmxml:Entity>
**            <udmxml:Entity xsi:type="udmxml:PartCType" protoInstanceRefId="df7a35b5c68cf840a5a63428777bb427:0" prototypeRefId="4de010c026537b49ac6fb892d9e09449:0" displayName="am_lded_thinwall_inconel625_dwell0_ht.inp" contentDefinitionType="UDMPartProtoOcc" id="7a01e525e4f34343bf7d3a08f54fa3cf:0">
**                <udmxml:Attributes>
**                    <udmxml:Attribute xsi:type="udmxml:AttributeCType" valueutf8="4de010c026537b49ac6fb892d9e09449" type="string" name="protoref" displayName="Prototype reference">4de010c026537b49ac6fb892d9e09449</udmxml:Attribute>
**                    <udmxml:Attribute xsi:type="udmxml:AttributeCType" valueutf8="df7a35b5c68cf840a5a63428777bb427" type="string" name="protoinstanceref" displayName="Prototype Instance reference">df7a35b5c68cf840a5a63428777bb427</udmxml:Attribute>
**                    <udmxml:Attribute xsi:type="udmxml:AttributeCType" valueutf8="59" type="string" name="UdmxmlString_HmOccurrenceColor">59</udmxml:Attribute>
**                    <udmxml:Attribute xsi:type="udmxml:AttributeCType" valueutf8="4" type="string" name="UdmxmlString_HmOccurrenceId">4</udmxml:Attribute>
**                    <udmxml:Attribute xsi:type="udmxml:AttributeCType" valueutf8="7389155" type="string" name="UdmxmlString_HmOccurrenceTrueColor">7389155</udmxml:Attribute>
**                </udmxml:Attributes>
**                <udmxml:Children>
**                    <udmxml:Child xsi:type="udmxml:ChildCType" refId="3a8521aa161f2b46b0dbf4124cb92faf:0" timestamp="1750451645727924" childFlags="0" groupName="partprotooccs" contentDefinitionType="UDMPartProtoOcc">
**                        <AdditionalIdList xsi:type="udmxml:AdditionalIdCType" xmlns="http://schemas.altair.com/AltairUDM" keyValue="PartToFabricate" keyName="displayname" contentDefinitionType="UDMPartProtoOcc"/>
**                    </udmxml:Child>
**                    <udmxml:Child xsi:type="udmxml:ChildCType" refId="7cb914e76a94f74db2b7105d03b260bc:0" timestamp="1750451645732989" childFlags="0" groupName="partprotooccs" contentDefinitionType="UDMPartProtoOcc">
**                        <AdditionalIdList xsi:type="udmxml:AdditionalIdCType" xmlns="http://schemas.altair.com/AltairUDM" keyValue="Substrate" keyName="displayname" contentDefinitionType="UDMPartProtoOcc"/>
**                    </udmxml:Child>
**                    <udmxml:Child xsi:type="udmxml:ChildCType" refId="74cfe67efb656249b449a0e35ffb2df8:0" timestamp="1750451645739003" childFlags="0" groupName="partprotooccs" contentDefinitionType="UDMPartProtoOcc">
**                        <AdditionalIdList xsi:type="udmxml:AdditionalIdCType" xmlns="http://schemas.altair.com/AltairUDM" keyValue="Clamp" keyName="displayname" contentDefinitionType="UDMPartProtoOcc"/>
**                    </udmxml:Child>
**                </udmxml:Children>
**            </udmxml:Entity>
**            <udmxml:Entity xsi:type="udmxml:PartCType" prototypeRefId="bc9fe9a0b1cf3741abfe9ca088c284a8:0" displayName="Model" contentDefinitionType="UDMPartProtoOcc" id="4e2e0a437c713747883b0bd2264bba7a:0">
**                <udmxml:Attributes>
**                    <udmxml:Attribute xsi:type="udmxml:AttributeCType" valueutf8="bc9fe9a0b1cf3741abfe9ca088c284a8" type="string" name="protoref" displayName="Prototype reference">bc9fe9a0b1cf3741abfe9ca088c284a8</udmxml:Attribute>
**                    <udmxml:Attribute xsi:type="udmxml:AttributeCType" valueutf8="43" type="string" name="UdmxmlString_HmOccurrenceColor">43</udmxml:Attribute>
**                    <udmxml:Attribute xsi:type="udmxml:AttributeCType" valueutf8="2" type="string" name="UdmxmlString_HmOccurrenceId">2</udmxml:Attribute>
**                    <udmxml:Attribute xsi:type="udmxml:AttributeCType" valueutf8="9869273" type="string" name="UdmxmlString_HmOccurrenceTrueColor">9869273</udmxml:Attribute>
**                    <udmxml:Attribute xsi:type="udmxml:AttributeCType" valueutf8="true" type="boolean" name="pseudo root">true</udmxml:Attribute>
**                </udmxml:Attributes>
**                <udmxml:Children>
**                    <udmxml:Child xsi:type="udmxml:ChildCType" refId="7a01e525e4f34343bf7d3a08f54fa3cf:0" timestamp="1750451645725920" childFlags="0" groupName="partprotooccs" contentDefinitionType="UDMPartProtoOcc">
**                        <AdditionalIdList xsi:type="udmxml:AdditionalIdCType" xmlns="http://schemas.altair.com/AltairUDM" keyValue="am_lded_thinwall_inconel625_dwell0_ht.inp" keyName="displayname" contentDefinitionType="UDMPartProtoOcc"/>
**                    </udmxml:Child>
**                </udmxml:Children>
**            </udmxml:Entity>
**        </udmxml:EntityCollection>
**        <udmxml:RelationCollection xsi:type="udmxml:RelationCollectionCType"/>
**        <udmxml:RootEntities xsi:type="udmxml:RootEntityCollectionCType">
**            <udmxml:ItemId>d636ab3d52defe45b33a4f0d351778e7:0</udmxml:ItemId>
**        </udmxml:RootEntities>
**    </UDM>
**</Altair_XML_Export>
